/*---------------------------------------------------------------------------*\
| =========                 |                                                 |
| \\      /  F ield         | OpenFOAM: The Open Source CFD Toolbox           |
|  \\    /   O peration     | Version:  1.4                                   |
|   \\  /    A nd           | Web:      http://www.openfoam.org               |
|    \\/     M anipulation  |                                                 |
\*---------------------------------------------------------------------------*/

FoamFile
{
    version         2.0;
    format          ascii;

    root            "";
    case            "";
    instance        "";
    local           "";

    class           dictionary;
    object          controlDict;
}

// * * * * * * * * * * * * * * * * * * * * * * * * * * * * * * * * * * * * * //

application interFoam;

startFrom       latestTime;

startTime       0;

stopAt          endTime;

endTime         250;

deltaT          0.0001;

writeControl    adjustableRunTime;

writeInterval   1;

purgeWrite      0;

writeFormat     ascii;

writePrecision  7;

writeCompression uncompressed;

timeFormat      general;

timePrecision   7;

runTimeModifiable yes;

adjustTimeStep  yes;

maxCo           0.30;

maxDeltaT       1;

libs ("libBoundaryConditions.so");

functions
(
    probes
    {
        // Type of functionObject
        type probes;
	functionObjectLibs ("libsampling.so");
        // Name of the directory for the probe data
        enabled		true;
	outputControl	timeStep;
	outputInterval	25;

        // Locations to be probed. runTime modifiable!
        probeLocations
        (
            (-25 0.05 -5)
        );
        // Fields to be probed. runTime modifiable!
        fields
        (
            p
        );
    }
);
// ************************************************************************* //

