/*--------------------------------*- C++ -*----------------------------------*\
| =========                 |                                                 |
| \\      /  F ield         | OpenFOAM: The Open Source CFD Toolbox           |
|  \\    /   O peration     | Version:  1.4.1                                 |
|   \\  /    A nd           | Web:      http://www.openfoam.org               |
|    \\/     M anipulation  |                                                 |
\*---------------------------------------------------------------------------*/

// FoamX Case Dictionary.

FoamFile
{
    version         2.0;
    format          ascii;

    root            "/home/caelinux/OpenFOAM/caelinux-1.4.1/run/STu1606";
    case            "STu1606_FS_2";
    instance        "system";
    local           "";

    class           dictionary;
    object          fvSolution;
}

// * * * * * * * * * * * * * * * * * * * * * * * * * * * * * * * * * * * * * //

solvers
{
    pcorr PCG
    {
        preconditioner   GAMG
        {
            tolerance        1e-5;
            relTol           0;

            smoother         DICGaussSeidel;
            nPreSweeps       0;
            nPostSweeps      2;
            nBottomSweeps    2;

            cacheAgglomeration false;
            nCellsInCoarsestLevel 10;
            agglomerator     faceAreaPair;
            mergeLevels      1;
        };

        tolerance        1e-5;
        relTol           0;
        maxIter          100;
    };
    p GAMG
    {
        tolerance        1e-8;
        relTol           0.01;

        smoother         DIC;
        nPreSweeps       0;
        nPostSweeps      2;
        nFinestSweeps    2;

        cacheAgglomeration true;
        nCellsInCoarsestLevel 10;
        agglomerator     faceAreaPair;
        mergeLevels      1;
    };
    pFinal PCG
    {
        preconditioner GAMG
        {
            tolerance        2e-9;
            relTol           0;

            nVcycles         2;

            smoother         DICGaussSeidel;
            nPreSweeps       2;
            nPostSweeps      2;
            nFinestSweeps    2;

            cacheAgglomeration true;
            nCellsInCoarsestLevel 10;
            agglomerator     faceAreaPair;
            mergeLevels      1;
        };
    };

    U               PBiCG 
    {
        tolerance       1e-06;
        relTol          0;
        preconditioner  DILU;
    };

    cellMotionU		 PCG
    {
        preconditioner   DIC;
        tolerance        1e-05;
        relTol           0;
    };

}

PISO
{
    momentumPredictor yes;
    nCorrectors     3;
    nNonOrthogonalCorrectors 0;
    nAlphaCorr      2;
    nAlphaSubCycles 1;
    cAlpha          0.5;
//    pRefCell	    0;
//   pRefValue	    0;
}
relaxationFactors
{
	p	0.2;
	U	0.8;
}

// ************************************************************************* //
