/*---------------------------------------------------------------------------*\
| =========                 |                                                 |
| \\      /  F ield         | OpenFOAM: The Open Source CFD Toolbox           |
|  \\    /   O peration     | Version:  1.4                                   |
|   \\  /    A nd           | Web:      http://www.openfoam.org               |
|    \\/     M anipulation  |                                                 |
\*---------------------------------------------------------------------------*/

FoamFile
{
    version         2.0;
    format          ascii;

    root            "";
    case            "";
    instance        "";
    local           "";

    class           dictionary;
    object          blockMeshDict;
}

// * * * * * * * * * * * * * * * * * * * * * * * * * * * * * * * * * * * * * //

convertToMeters 1;

vertices        
(
(-150 0 -20)	//0
(150 0 -20)	//1
(150 0.1 -20)	//2
(-150 0.1 -20)	//3
(-150 0 25)	//4
(150 0 25)	//5
(150 0.1 25)	//6
(-150 0.1 25)	//7
);

blocks          
(
    hex (0 1 2 3 4 5 6 7) water (180 1 35) simpleGrading (1 3 1)	//water
);

edges           
(
);

patches         
(
    patch Inlet 
    (
        (0 4 7 3)
        (3 2 1 0)
    )
    patch Top 
    (
        (4 5 6 7)
    )
    patch Outlet
    (
        (1 2 6 5)
    )
);

mergePatchPairs
(
);

// ************************************************************************* //
