/*--------------------------------*- C++ -*----------------------------------*\
| =========                 |                                                 |
| \\      /  F ield         | OpenFOAM: The Open Source CFD Toolbox           |
|  \\    /   O peration     | Version:  1.4.1                                 |
|   \\  /    A nd           | Web:      http://www.openfoam.org               |
|    \\/     M anipulation  |                                                 |
\*---------------------------------------------------------------------------*/

// FoamX Case Dictionary.

FoamFile
{
    version         2.0;
    format          ascii;

    root            "/home/mark/OpenFOAM/mark-1.5/run/STu1606";
    case            "blockmesh";
    instance        "system";
    local           "";

    class           dictionary;
    object          decomposeParDict;
}

// * * * * * * * * * * * * * * * * * * * * * * * * * * * * * * * * * * * * * //

arguments       "/home/mark/OpenFOAM/mark-1.5/run/STu1606/blockmesh" off off;

numberOfSubdomains 2;

method          simple;

simpleCoeffs
{
    n               (2 1 1);
    delta           0.001;
}

hierarchicalCoeffs
{
    n               (1 1 1);
    delta           0.001;
    order           xyz;
}

manualCoeffs
{
    dataFile        "";
}


// ************************************************************************* //
