/*--------------------------------*- C++ -*----------------------------------*\
| =========                 |                                                 |
| \\      /  F ield         | OpenFOAM: The Open Source CFD Toolbox           |
|  \\    /   O peration     | Version:  1.4.1                                 |
|   \\  /    A nd           | Web:      http://www.openfoam.org               |
|    \\/     M anipulation  |                                                 |
\*---------------------------------------------------------------------------*/

// FoamX Case Dictionary.

FoamFile
{
    version         2.0;
    format          ascii;

    root            "/home/caelinux/OpenFOAM/caelinux-1.4.1/run/tutorials/interFoam";
    case            "damBreak";
    instance        "system";
    local           "";

    class           dictionary;
    object          fvSchemes;
}

// * * * * * * * * * * * * * * * * * * * * * * * * * * * * * * * * * * * * * //

ddtSchemes
{
    default         Euler;
}

gradSchemes
{
    default         Gauss linear;
}

divSchemes
{
 //   div(rho*phi,U)  Gauss vanLeerV;
//    div(phi,alpha)  Gauss vanLeer;
//    div(phirb,alpha) Gauss vanLeer;

    div(rho*phi,U)  Gauss upwind;
    div(phi,alpha)  Gauss vanLeer;
    div(phirb,alpha) Gauss interfaceCompression;
}

laplacianSchemes
{
    default         Gauss linear corrected;
}


interpolationSchemes
{
    default         linear;
}

snGradSchemes
{
    default         corrected;
}

fluxRequired
{
    default         no;
    p;
    pcorr;
    alpha1;
}


// ************************************************************************* //
