/*--------------------------------*- C++ -*----------------------------------*\
| =========                 |                                                 |
| \\      /  F ield         | OpenFOAM: The Open Source CFD Toolbox           |
|  \\    /   O peration     | Version:  1.4.1                                 |
|   \\  /    A nd           | Web:      http://www.openfoam.org               |
|    \\/     M anipulation  |                                                 |
\*---------------------------------------------------------------------------*/

// FoamX Case Dictionary.

FoamFile
{
    version         2.0;
    format          ascii;

    root            "/home/caelinux/OpenFOAM/caelinux-1.4.1/run/STu1606";
    case            "STu1606_FS_2";
    instance        "system";
    local           "";

    class           dictionary;
    object          controlDict;
}

// * * * * * * * * * * * * * * * * * * * * * * * * * * * * * * * * * * * * * //

application     interFoam;

startFrom       latestTime;

startTime       0;

stopAt          endTime;

endTime         6;

deltaT          0.001;

writeControl    adjustableRunTime;

writeInterval   0.2;

purgeWrite      0;

writeFormat     ascii;

writePrecision  6;

writeCompression uncompressed;

timeFormat      general;

timePrecision   6;

graphFormat     raw;

runTimeModifiable yes;

functions       
(
);

adjustTimeStep  yes;

maxCo           0.25;

maxDeltaT       1;

// ************************************************************************* //
